002. Haasnoot, M., Kwakkel, J.H., Walker, W.E., Ter Maat, J., 2013. Dynamic adaptive policy pathways: a method for crafting robust decisions for a deeply uncertain world. J. Glob. Environ. Change 23 (2), 485–498. Hall, J., Murphy, C., 2011. Robust adaptation assessment – climate change and water supply. Int. J. Clim. Change Strategies Manage. 3 (3), 302–319. Handayani, K., Filatova, T., Krozer, Y., 2019. The Vulnerability of the Power Sector to Climate Variability and Change: Evidence from Indonesia. Energies 12 (19), 3640. https://doi.org/10.3390/en12193640. Huynh, L.T.M., Stringer, L.C., 2018. Multi-scale assessment of social vulnerability to climate change: An empirical study in coastal Vietnam. Clim. Risk Manag. 165–180. Hyman, T., 2014. Assessing the vulnerability of beach tourism and non-beach tourism to climate change: a case study from Jamaica. J. Sustain. Tour. 22 (8), 1197–1215. https://doi.org/10.1080/09669582.2013.855220. Inostroza, L., Palme, M., de la Barrera, F., 2016. A Heat Vulnerability Index: Spatial Patterns of Exposure, Sensitivity and Adaptive Capacity for Santiago de Chile. PLoS One 11 (9), e0162464. Kamruzzaman, M., Hwang, S., Choi, S.-K., Cho, J., Song, I., Song, J., Jeong, H., Jang, T., Yoo, S.-H., 2020. Evaluating the Impact of Climate Change on Paddy Water Balance Using APEX-Paddy Model. Water 12, 852. Kang, H., Sridhar, V., Mainuddin, M., Trung, L.D., 2021. Future rice farming threatened by drought in the Lower Mekong Basin. Nat. Sci. Rep. 11, 9383. https://doi.org/ 10.1038/s41598-021-88405-2. Kantamaneni, K., Rice, L., Yenneti, K., Campos, L.C., 2020. Assessing the vulnerability of agriculture systems to climate change in coastal areas: A novel index. Sustainability 12, 4771. Khayyun, T.S., Alwan, I.A., Hayder, A.M., 2019. Hydrological model for Hemren dam reservoir catchment area at the middle River Diyala reach in Iraq using ArcSWAT model. Appl. Water. Sci. 9, 133. https://doi.org/10.1007/s13201-019-1010-0. Khoi, D.N. and Thang, L.V. (2017). Climate change impacts on streamflow and non-point source pollutant loads in the 3S Rivers of the Mekong Basin, Water Environ. J., 31 (3) (2017), pp. 401-409, 10.1111/wej.12256. Kumar, S., Raju, B.M.K., Rao, C.A.R., Kareemulla, K., Venkateswarlu, B., 2011. Sensitivity of yields of major rainfed crops to climate in India Indian. J. Agric. Econ. 66, 340–352. Kuti, I.A., Ewemoje, T.A., 2021. Modelling of sediment yield using the soil and water assessment tool (SWAT) model: A case study of the Chanchaga Watersheds, Nigeria. Scientific African 13, e00936. Lakshmanan, A., Geethalakshmi, V., Rajalakshmi, D., Bhuvaneswari, K., Srinivasan, R., Sridhar, G., Sekhar, N.U., Annamalai, H., 2011. Climate change adaptation strategies in Bhavani basin using SWAT model. Appl. Eng. Agric. 27 (6), 887–893. Lannerstad, M., 2008. Planned and unplanned water use in a South Indian basin. Water Resour. Dev. 24 (2), 289–304. Lannerstad, M. and Molden, D. (2009).